LTspice 24.1.4 for Windows
Circuit: E:\IRGoKartTimingGate\LogicBoard.net
Start Time: Wed Feb 26 20:38:21 2025
solver = Normal
Maximum thread count: 16
tnom = 27
temp = 27
method = trap
Direct Newton iteration failed to find .op point.  (Use ".option noopiter" to skip.)
Starting Gmin stepping
Gmin = 10
Gmin = 1.07374
Gmin = 0.115292
Gmin = 0.0123794
Gmin = 0.00132923
Gmin = 0.000142725
Gmin = 1.5325e-05
vernier = 0.5
Gmin = 2.85678e-06
vernier = 0.25
vernier = 0.125
vernier = 0.0625
vernier = 0.03125
Gmin = 2.20512e-06
vernier = 0.0416667
vernier = 0.0555555
Gmin = 1.98467e-06
vernier = 0.074074
Gmin = 1.68234e-06
vernier = 0.0987653
vernier = 0.131687
Gmin = 1.27669e-06
vernier = 0.175583
vernier = 0.23411
Gmin = 8.25286e-07
vernier = 0.312147
Gmin = 4.18788e-07
vernier = 0.416196
vernier = 0.554928
Gmin = 1.37524e-07
vernier = 0.739903
vernier = 0.986537
Gmin = 2.46491e-08
vernier = 1
Gmin = 2.67537e-09
Gmin = 2.87266e-10
Gmin = 3.08449e-11
Gmin = 3.31195e-12
Gmin = 3.55618e-13
Gmin = 0
Gmin stepping succeeded in finding the operating point.

Total elapsed time: 0.162 seconds.

Files loaded:
E:\IRGoKartTimingGate\LogicBoard.net
E:\IRGoKartTimingGate\OPA2333.lib
C:\Users\Riley\Documents\LTspice\LM358.MOD

